LAMMPS (3 Mar 2020)
# chain on a wall - Langevin thermostat

# units, simulation style, boundaries
units		lj
atom_style	bond
boundary        p p f

# read in file
read_data       brush_N20.data
  orthogonal box = (-15.75 -12.7305 0) to (15.75 12.7305 30)
  reading atoms ...
  3260 atoms
  scanning bonds ...
  reading bonds ...
  2299 bonds

# set pair potential
pair_style      lj/cut 2.5
pair_coeff      * * 1.0   1.0 1.12246
pair_coeff      1 4 200.0 1.0 2.5
pair_coeff      4 4 0.00 0.00 0.000
## add pair coeff. for lj potential of monomers
## add pair coeff. to attatch chain on the wall

# set bonding potential
bond_style      fene
bond_coeff      1 30 1.5 1.0 1.0
special_bonds   fene

# change timestep [LJ units]
timestep        0.002

# define groups
group           chain type 1 2 3
2420 atoms in group chain
group           wall type 4
840 atoms in group wall
group           end type 3
121 atoms in group end

# time integration + thermostat
fix		1 chain nve
fix             2 chain langevin  1.2 1.2 0.5 1337

## dump a movie if you want
#dump           1 all xyz 1000 film.xyz

dump            2 all dcd 1000 film.dcd
dump_modify     2 unwrap yes

dump            3 all custom 1000 film.traj id type xu yu zu

# thermodynamic output, Nr. of time steps
thermo          1000
run             300000
  update every 1 steps, delay 10 steps, check yes
Step Temp E_pair E_mol TotEng Press
0            0   -23.286555    14.695123   -8.5914316   -5.3859945
Averages over the last 151 of 301 rows, steps 150000 to 300000:
Temp E_pair E_mol TotEng Press
0.891344 -33.9103 14.6969 -17.8767 -1.67965
Loop time of 147.793 on 1 procs for 300000 steps with 3260 atoms

reset_timestep  0

# measure brush profile
fix             4 chain ave/histo 1000 200 200000 0 30 50 z file rho.txt mode vector ave running
fix             5 end ave/histo 1000 200 200000 0 30 50 z file ends.txt mode vector ave running
run             200000
Step Temp E_pair E_mol TotEng Press
0   0.90574543   -33.917094     14.67548   -17.883412   -1.6884393
Averages over the last 101 of 201 rows, steps 100000 to 200000:
Temp E_pair E_mol TotEng Press
0.892635 -33.9116 14.697 -17.876 -1.6816
Loop time of 99.0728 on 1 procs for 200000 steps with 3260 atoms

write_data      brush_eq.data
