LAMMPS (3 Mar 2020)
# Single Chain in Solvent/CoSolvent
units		lj
atom_style	bond
boundary        p p p
timestep	0.005

pair_style      lj/cut 2.5
bond_style	fene

read_data       chain.data
  orthogonal box = (-5.77581 -5.77581 -5.77581) to (5.77581 5.77581 5.77581)
  reading atoms ...
  6830 atoms
  reading velocities ...
  6830 velocities
  scanning bonds ...
  reading bonds ...
  29 bonds

pair_coeff      1 1  1.0  1.00  1.12246
pair_coeff      1 2  0.5  0.75  1.87500
pair_coeff      1 3  1.0  0.75  1.87500
pair_coeff      2 2  1.0  0.50  0.56123
pair_coeff      2 3  1.0  0.50  0.56123
pair_coeff      3 3  1.0  0.50  0.56123

bond_coeff	1 30.0 1.5 1.0 1.0
special_bonds	fene

group polymer 	type 1
30 atoms in group polymer
group solvent 	type 2
6800 atoms in group solvent
group cosolvent type 3
0 atoms in group cosolvent

velocity        all create 0.5 1337 dist gaussian

### add suitable fix(es) for time integration and thermostatting
fix             1 all nve
fix             2 all langevin 0.5 0.5 1.0 4129571

thermo          1000
run     	200000 ### enter equilibration time
  update every 1 steps, delay 10 steps, check yes
Step Temp E_pair E_mol TotEng Press
0          0.5  -0.71487228  0.086324675   0.12134259      10.1011
Averages over the last 101 of 201 rows, steps 100000 to 200000:
Temp E_pair E_mol TotEng Press
0.500539 -0.699413 0.0868451 0.138131 10.1616
Loop time of 934.857 on 1 procs for 200000 steps with 6830 atoms

reset_timestep  0

write_data      eq.data

### after equilibrating, perform measurements and output to files
### enter suitable Lammps commands

compute         rg polymer gyration
fix             rg polymer ave/time 1000 1 1000 c_rg file rg.txt

dump            3 polymer custom 1000 unwrapped.txt id mol type xu yu zu
dump_modify     3 sort id

dump            3w polymer custom 1000 wrapped.txt id mol type x y z
dump_modify     3w sort id

run             200000 ### enter measurement time
Step Temp E_pair E_mol TotEng Press
0    0.5113461  -0.70307807   0.08682495   0.15065373    10.102256
Averages over the last 101 of 201 rows, steps 100000 to 200000:
Temp E_pair E_mol TotEng Press
0.500749 -0.698688 0.0868475 0.139173 10.1825
Loop time of 914.236 on 1 procs for 200000 steps with 6830 atoms

write_data      final.data
