LAMMPS (31 Mar 2017)
units            real
dimension        3
atom_style       full
boundary         p p p
special_bonds    lj/coul 0.0 0.0 1.0 dihedral yes

# pair style has LJ and Coulombic potential
pair_style	 lj/cut/coul/cut 9.8 9.8

# we also have many-body interactions now!
bond_style       harmonic
angle_style      harmonic
dihedral_style   harmonic
improper_style   umbrella

read_data	ethane_in_water.data
  orthogonal box = (0 0 0) to (15 15 15)
  reading atoms ...
  341 atoms
  scanning bonds ...
  scanning angles ...
  scanning dihedrals ...
  scanning impropers ...
  reading bonds ...
  229 bonds
  reading angles ...
  123 angles
  reading dihedrals ...
  9 dihedrals
  reading impropers ...
  8 impropers
reset_timestep  0

pair_modify     mix arithmetic                  # mixing rules; arithmetic = Lorentz-Berthelot,  but 6th power = more accurate
timestep        1.0                             # units = fs

thermo          10
thermo_style    custom step temp press density etotal epair

minimize        1.0e-6 1.0e-8 10000 100000
  update every 1 steps, delay 0 steps, check yes
Step Temp Press Density TotEng E_pair
0            0    1082670.5    1.0067517    52677.394    21347.472
Loop time of 0.819395 on 1 procs for 16 steps with 341 atoms

Minimization stats:
  Stopping criterion = energy tolerance
  Energy initial, next-to-last, final =
  Force two-norm initial, final = 112023 564.118
  Force max component initial, final = 46780.1 147.107
  Final line search alpha, max atom move = 1.29657e-09 1.90734e-07
  Iterations, force evaluations = 16 99

reset_timestep  0

group		ethane type 1 2
8 atoms in group ethane
group		water  type 9 10
0 atoms in group water

# temperature is now in Kelvin!
velocity        all create 300.0 4928459 dist gaussian

# this only works with LAMMPS package "rigid"
fix             1 all shake 0.0001 20 0 b 1 3 a 2

# NPT simulation using Nose-Hoover thermostat & barostat
fix             2 all npt temp 300.0 300.0 100.0 iso 1.0 1.0 1000.0

#dump            1 all dcd 500 unwrap.dcd
#dump_modify     1 unwrap yes

thermo          500
thermo_style    custom step temp press density

run             100000
Step Temp Press Density
0    449.33921     72508.87    1.0067517
Averages over the last 101 of 201 rows, steps 50000 to 100000:
Temp Press Density
302.736 -931.833 1.05158
Loop time of 494.56 on 1 procs for 100000 steps with 341 atoms

write_data      ethane_100k.data
