LAMMPS (3 Mar 2020)
# chain on a wall - dpd thermostat

# units, simulation style, boundaries
units		lj
atom_style	bond
boundary        p p f

# read in file
read_data       start.data
  orthogonal box = (-21 -18.1865 0) to (21 18.1865 90)
  reading atoms ...
  1620 atoms
  scanning bonds ...
  reading bonds ...
  19 bonds

# set pair potential (included DPD thermostat!)
pair_style      hybrid/overlay lj/cut 2.5 dpd/tstat 1.2 1.2 2.25 34958

pair_coeff      * * lj/cut 1.0 1.0 1.12246
pair_coeff      1 4 lj/cut 200 1.0 2.5
pair_coeff      4 4 lj/cut 0.0 0.0 0.00000

pair_coeff      * * dpd/tstat 5.0 1.1225
pair_coeff      4 4 dpd/tstat 0.0 0.0
comm_modify     vel yes

# set bonding potential
bond_style      fene
bond_coeff      1 30 1.5 1.0 1.0
special_bonds   fene

# change timestep
timestep        0.002

#define groups
group chain 	type 1 2 3
20 atoms in group chain
group wall  	type 4
1600 atoms in group wall
group end 	type 3
1 atoms in group end

# time integration
fix		1 chain nve

# move the wall at linear velocity along x
fix             3 wall move linear 0.5 0.0 0.0

# measure extension of chain
compute         1 end reduce ave z
fix             4 end ave/time 1000 1 1000 c_1 file z.txt

compute         rg chain gyration
fix             rg chain ave/time 1000 1 1000 c_rg file rg.txt

## dump a movie if you want
#dump           1 all xyz 1000 film.xyz

dump            2 all dcd 1000 film.dcd
dump_modify     2 unwrap yes

# thermodynamic output, Nr. of time steps
thermo          1000
run             1000000
  update every 1 steps, delay 10 steps, check yes
Step Temp E_pair E_mol TotEng Press
0            0  -0.39028792   0.24439395  -0.14589397 -0.0084294926
Averages over the last 501 of 1001 rows, steps 500000 to 1000000:
Temp E_pair E_mol TotEng Press
0.0983792 -0.563402 0.245073 -0.170851 -0.0015059
Loop time of 88.3944 on 1 procs for 1000000 steps with 1620 atoms
