LAMMPS (31 Mar 2017)
#temperature in reduced units
variable temp equal 2.0

#set up basic simulation stuff
dimension 2
units		lj
atom_style	molecular
boundary        p p p

# pair and bond styles
pair_style      lj/cut 1.12246
bond_style      fene

# Read in initial configuraiton
read_data       2d_chain.data
  orthogonal box = (-20 -20 -2) to (20 20 2)
  reading atoms ...
  40 atoms
  scanning bonds ...
  reading bonds ...
  39 bonds

# Lennard Jones short cutoff
pair_style      lj/cut 1.12246
pair_coeff      1 1 1.0 1.0 1.12246

# FENE type bond
bond_coeff      1 30.0 1.5 1.0 1.0
special_bonds   fene

# time stepping, thermostat and 2d
fix integrator  all nve
fix dynamics    all langevin 2 2 1.0 252352
fix run2d       all enforce2d

# print out thermodynamic information regularly
thermo          10000

# equilibrate for some time
run             5000000
  update every 1 steps, delay 10 steps, check yes
Step Temp E_pair E_mol TotEng Press
0            0            0    19.705412    19.705412   -0.0460389
Averages over the last 251 of 501 rows, steps 2500000 to 5000000:
Temp E_pair E_mol TotEng Press
2.01893 -0.0287662 20.7777 22.7174 -0.0025674
Loop time of 24.1994 on 1 procs for 5000000 steps with 40 atoms

reset_timestep  0

###############################
## Mean Squared Displacement ##
###############################

# calculate and output MSD at regular time intervals
compute         1 all msd
fix             4 all ave/time 10 10 100 c_1[*] file msd.txt

# run the simulation for X steps (measurement)
run             10000000
Step Temp E_pair E_mol TotEng Press
0    2.0250571 -0.024344218    20.492697    22.442783 -0.013619274
Averages over the last 501 of 1001 rows, steps 5000000 to 10000000:
Temp E_pair E_mol TotEng Press
2.05274 -0.0288854 20.7331 22.7056 0.00849483
Loop time of 49.582 on 1 procs for 10000000 steps with 40 atoms

# write out the final conformation (to continue)
write_data      2d_chain_final.data
